L24/1726529/Linhas.dss
! ==========================================================
! LINHAS — geradas de SSDMT
! Barras = PAC_1 / PAC_2 da BDGD (preservados)
! ==========================================================
New Line.247064287 Bus1=node_441159960.2 Bus2=node_441159961.2 LineCode=CND_907_1F Length=192.73 Units=m
New Line.246708867 Bus1=node_439554474.3 Bus2=node_439554423.3 LineCode=CND_907_1F Length=122.15 Units=m
New Line.246892254 Bus1=node_440273987.1.2.3 Bus2=node_440273609.1.2.3 LineCode=CND_11_3F Length=292.45 Units=m
New Line.246528936 Bus1=node_438839478.1 Bus2=node_438839488.1 LineCode=CND_907_1F Length=277.03 Units=m
New Line.246893992 Bus1=node_440617625.3 Bus2=node_440617495.3 LineCode=CND_907_1F Length=108.45 Units=m
New Line.246710431 Bus1=node_439365538.3 Bus2=node_439363863.3 LineCode=CND_907_1F Length=172.57 Units=m
New Line.246710389 Bus1=node_439922849.1 Bus2=node_439551389.1 LineCode=CND_907_1F Length=649.13 Units=m
New Line.246710086 Bus1=node_428947222.1 Bus2=node_439921340.1 LineCode=CND_907_1F Length=64.13 Units=m
New Line.1212861825 Bus1=node_1511157497.2 Bus2=node_1511157609.2 LineCode=CND_907_1F Length=156.23 Units=m
New Line.1507318724 Bus1=node_1817333071.2 Bus2=node_1817333092.2 LineCode=CND_902_1F Length=38.59 Units=m
New Line.245835863 Bus1=node_2825015474.1 Bus2=node_1692755277.1 LineCode=CND_907_1F Length=74.98 Units=m
New Line.246708438 Bus1=node_439552383.2 Bus2=node_439552384.2 LineCode=CND_907_1F Length=190.19 Units=m
New Line.247853186 Bus1=node_445272285.1.2.3 Bus2=node_445272286.1.2.3 LineCode=CND_10_3F Length=29.38 Units=m
New Line.246893881 Bus1=node_440617021.2 Bus2=node_440616955.2 LineCode=CND_907_1F Length=198.31 Units=m
New Line.247066156 Bus1=node_441495673.1 Bus2=node_441495674.1 LineCode=CND_907_1F Length=68.51 Units=m
New Line.246893690 Bus1=node_440616115.3 Bus2=node_440616116.3 LineCode=CND_907_1F Length=120.77 Units=m
New Line.247067194 Bus1=node_441835745.1 Bus2=node_441835800.1 LineCode=CND_907_1F Length=173.46 Units=m
New Line.247067455 Bus1=node_441836999.1 Bus2=node_441836988.1 LineCode=CND_907_1F Length=307.25 Units=m
New Line.2269619587 Bus1=node_2564205216.3 Bus2=node_2564205372.3 LineCode=CND_913_1F Length=461.44 Units=m
New Line.245160323 Bus1=node_432257918.1.2.3 Bus2=node_432257919.1.2.3 LineCode=CND_51_3F Length=130.98 Units=m
New Line.246527948 Bus1=node_438675659.1 Bus2=node_438675660.1 LineCode=CND_907_1F Length=303.38 Units=m
New Line.245668583 Bus1=node_434181480.1 Bus2=node_434181481.1 LineCode=CND_907_1F Length=155.96 Units=m
New Line.245160349 Bus1=node_432257919.1.2.3 Bus2=node_432257913.1.2.3 LineCode=CND_51_3F Length=333.81 Units=m
New Line.245160926 Bus1=node_432449643.1.2.3 Bus2=node_432449898.1.2.3 LineCode=CND_51_3F Length=129.54 Units=m
New Line.244247448 Bus1=node_427018232.1 Bus2=node_427018131.1 LineCode=CND_907_1F Length=233.65 Units=m
New Line.1568478162 Bus1=node_1888029649.3 Bus2=node_1888029660.3 LineCode=CND_907_1F Length=77.42 Units=m
New Line.246710808 Bus1=node_2744587571.1 Bus2=node_440096718.1 LineCode=CND_907_1F Length=44.71 Units=m
New Line.243677443 Bus1=node_424375167.1.2.3 Bus2=node_424375177.1.2.3 LineCode=CND_28_3F Length=4.20 Units=m
New Line.246894593 Bus1=node_440800978.1 Bus2=node_440800979.1 LineCode=CND_907_1F Length=418.33 Units=m
New Line.247853691 Bus1=node_445274821.2 Bus2=node_445274827.2 LineCode=CND_909_1F Length=28.75 Units=m
New Line.2401398121 Bus1=node_440274178.3 Bus2=node_2591937812.3 LineCode=CND_996_1F Length=581.50 Units=m
New Line.246528227 Bus1=100_1722525274.1 Bus2=node_438675619.1 LineCode=CND_907_1F Length=13.91 Units=m
New Line.244448762 Bus1=node_428772943.3 Bus2=node_428773038.3 LineCode=CND_907_1F Length=108.20 Units=m
New Line.244448607 Bus1=node_428772257.1.2.3 Bus2=node_428772097.1.2.3 LineCode=CND_11_3F Length=87.49 Units=m
New Line.2594501291 Bus1=node_2800667574.1 Bus2=node_2800667248.1 LineCode=CND_926_1F Length=114.44 Units=m
New Line.246709907 Bus1=node_439552095.1.2.3 Bus2=node_439920445.1.2.3 LineCode=CND_11_3F Length=308.55 Units=m
New Line.247236032 Bus1=node_442005843.3 Bus2=node_442005818.3 LineCode=CND_907_1F Length=45.20 Units=m
New Line.246710320 Bus1=node_439922509.1 Bus2=node_439922084.1 LineCode=CND_907_1F Length=111.72 Units=m
New Line.246529495 Bus1=node_438842281.1 Bus2=node_438842231.1 LineCode=CND_907_1F Length=70.95 Units=m
New Line.246707600 Bus1=node_439363543.3 Bus2=node_439363544.3 LineCode=CND_907_1F Length=130.24 Units=m
New Line.798409346 Bus1=node_1069455726.1.2.3 Bus2=node_1069455737.1.2.3 LineCode=CND_47_3F Length=65.33 Units=m
New Line.246708543 Bus1=node_439552908.1 Bus2=node_439552909.1 LineCode=CND_907_1F Length=361.04 Units=m
New Line.246707889 Bus1=node_439362359.1 Bus2=node_439364993.1 LineCode=CND_907_1F Length=95.51 Units=m
New Line.246709425 Bus1=node_2655993653.1 Bus2=node_439750569.1 LineCode=CND_907_1F Length=271.81 Units=m
New Line.2605089355 Bus1=node_2758261873.3 Bus2=node_2758261883.3 LineCode=CND_1091_1F Length=37.20 Units=m
New Line.246709412 Bus1=node_439750503.1 Bus2=node_439750504.1 LineCode=CND_907_1F Length=143.13 Units=m
New Line.245364244 Bus1=node_432818105.1.2.3 Bus2=node_432818110.1.2.3 LineCode=CND_51_3F Length=348.29 Units=m
New Line.246894243 Bus1=node_440618876.1 Bus2=node_440618881.1 LineCode=CND_907_1F Length=65.06 Units=m
New Line.244631187 Bus1=node_428772658.1.2.3 Bus2=node_429307303.1.2.3 LineCode=CND_13_3F Length=109.82 Units=m
New Line.606364380 Bus1=node_439171134.3 Bus2=node_874447537.3 LineCode=CND_907_1F Length=7.25 Units=m
New Line.1119664899 Bus1=node_431088374.1.2.3 Bus2=node_445379723.1.2.3 LineCode=CND_10_3F Length=32.93 Units=m
New Line.246528449 Bus1=node_438678172.3 Bus2=node_438678173.3 LineCode=CND_907_1F Length=58.54 Units=m
New Line.246708892 Bus1=node_439554653.3 Bus2=node_439554633.3 LineCode=CND_907_1F Length=56.82 Units=m
New Line.244447080 Bus1=node_428584266.1 Bus2=node_428584276.1 LineCode=CND_907_1F Length=157.94 Units=m
New Line.244448231 Bus1=node_428770377.2 Bus2=node_428770383.2 LineCode=CND_907_1F Length=246.78 Units=m
New Line.246895703 Bus1=node_440969720.2 Bus2=node_440969721.2 LineCode=CND_907_1F Length=202.43 Units=m
New Line.246709427 Bus1=node_432258525.1.2.3 Bus2=node_432259617.1.2.3 LineCode=CND_11_3F Length=86.88 Units=m
New Line.246892322 Bus1=node_440274327.3 Bus2=node_440273659.3 LineCode=CND_907_1F Length=121.06 Units=m
New Line.244446860 Bus1=node_428389940.2 Bus2=node_428389946.2 LineCode=CND_907_1F Length=50.86 Units=m
New Line.246895205 Bus1=node_440802820.3 Bus2=node_440618050.3 LineCode=CND_907_1F Length=294.23 Units=m
New Line.247236054 Bus1=node_439170829.3 Bus2=node_441336142.3 LineCode=CND_907_1F Length=156.94 Units=m
New Line.246710524 Bus1=node_439921605.1 Bus2=node_439921484.1 LineCode=CND_907_1F Length=194.59 Units=m
New Line.244447257 Bus1=node_428585164.1 Bus2=node_428585165.1 LineCode=CND_907_1F Length=83.39 Units=m
New Line.247853003 Bus1=node_445271177.1.2.3 Bus2=node_445271336.1.2.3 LineCode=CND_50_3F Length=25.91 Units=m
New Line.246895831 Bus1=node_440970360.1 Bus2=node_440448099.1 LineCode=CND_907_1F Length=120.28 Units=m
New Line.2172725394 Bus1=node_2480029926.3 Bus2=node_2480029933.3 LineCode=CND_902_1F Length=34.27 Units=m
New Line.246896110 Bus1=node_430386729.1 Bus2=node_440971670.1 LineCode=CND_907_1F Length=132.33 Units=m
New Line.246709181 Bus1=node_439749332.1.2.3 Bus2=node_439749333.1.2.3 LineCode=CND_11_3F Length=156.56 Units=m
New Line.1570891406 Bus1=node_438838261.3 Bus2=node_1890421115.3 LineCode=CND_902_1F Length=2.06 Units=m
New Line.246133667 Bus1=node_436880226.3 Bus2=node_436880227.3 LineCode=CND_907_1F Length=157.25 Units=m
New Line.247904521 Bus1=node_431263619.2 Bus2=node_445378771.2 LineCode=CND_915_1F Length=39.56 Units=m
New Line.246530670 Bus1=node_439169169.3 Bus2=node_439170038.3 LineCode=CND_907_1F Length=292.23 Units=m
New Line.247426809 Bus1=node_439019425.1.2.3 Bus2=node_443410657.1.2.3 LineCode=CND_19_3F Length=26.64 Units=m
New Line.246527713 Bus1=node_438476960.3 Bus2=node_438476961.3 LineCode=CND_907_1F Length=266.46 Units=m
New Line.246895882 Bus1=node_440969726.3 Bus2=node_430544288.3 LineCode=CND_907_1F Length=91.11 Units=m
New Line.246529238 Bus1=node_438840997.1 Bus2=node_438840927.1 LineCode=CND_907_1F Length=344.87 Units=m
New Line.1119664897 Bus1=node_445379787.1.2.3 Bus2=node_431088374.1.2.3 LineCode=CND_10_3F Length=29.54 Units=m
New Line.245161361 Bus1=node_432451457.1.2.3 Bus2=node_432450766.1.2.3 LineCode=CND_51_3F Length=331.21 Units=m
New Line.730574409 Bus1=node_1004628646.1.2.3 Bus2=node_444596533.1.2.3 LineCode=CND_20_3F Length=43.61 Units=m
New Line.246530792 Bus1=node_439170833.1 Bus2=node_439170388.1 LineCode=CND_907_1F Length=84.75 Units=m
New Line.246710550 Bus1=node_439923663.1 Bus2=node_439923664.1 LineCode=CND_907_1F Length=71.65 Units=m
New Line.245160553 Bus1=node_432258709.1.2.3 Bus2=node_432258817.1.2.3 LineCode=CND_51_3F Length=146.18 Units=m
New Line.247067322 Bus1=node_441836439.1 Bus2=node_441835794.1 LineCode=CND_907_1F Length=256.52 Units=m
New Line.247853776 Bus1=node_445296721.1.2.3 Bus2=node_445296726.1.2.3 LineCode=CND_50_3F Length=34.80 Units=m
New Line.246894478 Bus1=node_440620055.3 Bus2=node_430544843.3 LineCode=CND_907_1F Length=397.88 Units=m
New Line.246892402 Bus1=node_440274727.3 Bus2=node_440274728.3 LineCode=CND_907_1F Length=130.60 Units=m
New Line.246708382 Bus1=node_439552099.2 Bus2=node_439552100.2 LineCode=CND_907_1F Length=32.81 Units=m
New Line.246893611 Bus1=node_440448254.1 Bus2=node_440448255.1 LineCode=CND_907_1F Length=75.55 Units=m
New Line.247853104 Bus1=node_424375117.1.2.3 Bus2=node_445271872.1.2.3 LineCode=CND_13_3F Length=326.35 Units=m
New Line.247065216 Bus1=node_441336377.1 Bus2=node_441336378.1 LineCode=CND_907_1F Length=346.22 Units=m
New Line.247902331 Bus1=node_445320546.1 Bus2=node_445320551.1 LineCode=CND_909_1F Length=37.48 Units=m
New Line.247904526 Bus1=node_445378795.2 Bus2=node_445378796.2 LineCode=CND_911_1F Length=27.60 Units=m
New Line.246894377 Bus1=node_440619550.1 Bus2=node_440619551.1 LineCode=CND_907_1F Length=244.35 Units=m
New Line.247065747 Bus1=node_441493624.1 Bus2=node_441493625.1 LineCode=CND_907_1F Length=70.84 Units=m
New Line.247853704 Bus1=node_445274891.1.2.3 Bus2=node_444596638.1.2.3 LineCode=CND_50_3F Length=24.80 Units=m
New Line.246894637 Bus1=node_440801198.1 Bus2=node_440619675.1 LineCode=CND_907_1F Length=281.40 Units=m
New Line.245366352 Bus1=node_432818590.1.2.3 Bus2=node_433266684.1.2.3 LineCode=CND_51_3F Length=408.00 Units=m
New Line.246531129 Bus1=node_439020320.3 Bus2=node_439172519.3 LineCode=CND_907_1F Length=185.98 Units=m
New Line.246894432 Bus1=node_440619681.2 Bus2=node_440619795.2 LineCode=CND_907_1F Length=92.48 Units=m
New Line.246529793 Bus1=node_439019829.1 Bus2=node_439019835.1 LineCode=CND_907_1F Length=37.58 Units=m
New Line.246529724 Bus1=node_439019489.3 Bus2=node_439019399.3 LineCode=CND_907_1F Length=58.64 Units=m
New Line.246709124 Bus1=node_439749047.3 Bus2=node_439748732.3 LineCode=CND_907_1F Length=61.91 Units=m
New Line.2657071976 Bus1=node_2822280068.1.2.3 Bus2=node_2822280083.1.2.3 LineCode=CND_3_3F Length=51.37 Units=m
New Line.1386854694 Bus1=node_1681680883.1 Bus2=node_1681680894.1 LineCode=CND_907_1F Length=126.20 Units=m
New Line.246894537 Bus1=node_440800698.2 Bus2=node_440617215.2 LineCode=CND_907_1F Length=201.68 Units=m
New Line.244447229 Bus1=node_428584951.1 Bus2=node_428584970.1 LineCode=CND_907_1F Length=107.53 Units=m
New Line.246528795 Bus1=node_438677209.3 Bus2=node_438838781.3 LineCode=CND_907_1F Length=78.80 Units=m
New Line.246529980 Bus1=node_438841872.3 Bus2=node_438841627.3 LineCode=CND_907_1F Length=69.02 Units=m
New Line.247064781 Bus1=node_441159586.1 Bus2=node_441333624.1 LineCode=CND_907_1F Length=458.67 Units=m
New Line.247853526 Bus1=node_439021100.1 Bus2=node_445273998.1 LineCode=CND_909_1F Length=45.11 Units=m
New Line.246709255 Bus1=node_439554304.1 Bus2=node_439749711.1 LineCode=CND_907_1F Length=208.15 Units=m
New Line.247064578 Bus1=node_441333175.1 Bus2=node_441333176.1 LineCode=CND_907_1F Length=136.15 Units=m
New Line.247853089 Bus1=node_445271542.1.2.3 Bus2=node_445271797.1.2.3 LineCode=CND_50_3F Length=36.72 Units=m
New Line.246709542 Bus1=node_439751148.1 Bus2=node_439751033.1 LineCode=CND_907_1F Length=41.77 Units=m
New Line.244447026 Bus1=node_428390711.1 Bus2=node_428390770.1 LineCode=CND_907_1F Length=272.82 Units=m
New Line.246531282 Bus1=node_439171029.2 Bus2=node_439362224.2 LineCode=CND_907_1F Length=227.04 Units=m
New Line.244447173 Bus1=node_428584256.1 Bus2=node_428584741.1 LineCode=CND_907_1F Length=226.61 Units=m
New Line.244447539 Bus1=node_428586574.3 Bus2=node_428586575.3 LineCode=CND_907_1F Length=87.41 Units=m
New Line.246531132 Bus1=node_439172533.1 Bus2=node_439172534.1 LineCode=CND_907_1F Length=133.98 Units=m
New Line.1937512948 Bus1=node_2254603472.3 Bus2=node_2254603456.3 LineCode=CND_907_1F Length=90.26 Units=m
New Line.1913681238 Bus1=node_439364567.3 Bus2=node_2231905387.3 LineCode=CND_907_1F Length=2.06 Units=m
New Line.246528165 Bus1=node_438675905.1 Bus2=node_438676749.1 LineCode=CND_907_1F Length=200.20 Units=m
New Line.247853132 Bus1=node_445272011.1.2.3 Bus2=node_439019609.1.2.3 LineCode=CND_13_3F Length=142.51 Units=m
New Line.246710675 Bus1=node_439924288.2 Bus2=node_439924289.2 LineCode=CND_907_1F Length=235.18 Units=m
New Line.245159707 Bus1=node_432065630.1.2.3 Bus2=node_432065875.1.2.3 LineCode=CND_51_3F Length=124.14 Units=m
New Line.1146790933 Bus1=node_1379192457.1.2.3 Bus2=node_1379191513.1.2.3 LineCode=CND_13_3F Length=50.89 Units=m
New Line.246133927 Bus1=node_436881530.1 Bus2=node_436881531.1 LineCode=CND_907_1F Length=573.81 Units=m
New Line.244629852 Bus1=node_428948511.1 Bus2=node_428948512.1 LineCode=CND_907_1F Length=362.74 Units=m
New Line.244630156 Bus1=node_429143265.3 Bus2=node_429143266.3 LineCode=CND_907_1F Length=29.58 Units=m
New Line.244447313 Bus1=node_428585444.1 Bus2=node_428585445.1 LineCode=CND_907_1F Length=276.72 Units=m
New Line.245578547 Bus1=node_433653536.1.2.3 Bus2=node_433653537.1.2.3 LineCode=CND_20_3F Length=40.63 Units=m
New Line.246530187 Bus1=node_438841902.1 Bus2=node_439021689.1 LineCode=CND_907_1F Length=191.05 Units=m
New Line.246530765 Bus1=node_438841742.1 Bus2=node_438842431.1 LineCode=CND_907_1F Length=156.05 Units=m
New Line.246530933 Bus1=node_439170904.2 Bus2=node_439170888.2 LineCode=CND_907_1F Length=58.59 Units=m
New Line.245160272 Bus1=node_432257379.1.2.3 Bus2=node_432257403.1.2.3 LineCode=CND_51_3F Length=135.00 Units=m
New Line.246528613 Bus1=node_438678992.3 Bus2=node_438678862.3 LineCode=CND_907_1F Length=172.06 Units=m
New Line.244446791 Bus1=node_428389600.1 Bus2=node_428389601.1 LineCode=CND_907_1F Length=106.88 Units=m
New Line.1801269358 Bus1=node_439920824.1 Bus2=node_2125055589.1 LineCode=CND_902_1F Length=2.92 Units=m
New Line.245578593 Bus1=node_433653766.1.2.3 Bus2=node_433653716.1.2.3 LineCode=CND_20_3F Length=37.58 Units=m
New Line.246529706 Bus1=node_439019399.3 Bus2=node_439019400.3 LineCode=CND_907_1F Length=43.84 Units=m
New Line.247067715 Bus1=node_441838404.2 Bus2=node_441838409.2 LineCode=CND_911_1F Length=30.95 Units=m
New Line.246895321 Bus1=node_440804634.2 Bus2=node_440804624.2 LineCode=CND_907_1F Length=33.95 Units=m
New Line.2571367489 Bus1=node_2723005792.3 Bus2=node_2723005916.3 LineCode=CND_923_1F Length=58.88 Units=m
New Line.246529199 Bus1=node_438840763.3 Bus2=node_438840032.3 LineCode=CND_907_1F Length=289.63 Units=m
New Line.246529525 Bus1=node_438842436.3 Bus2=node_438842437.3 LineCode=CND_907_1F Length=52.83 Units=m
New Line.244448089 Bus1=node_428769672.1 Bus2=node_428769597.1 LineCode=CND_907_1F Length=210.55 Units=m
New Line.246530579 Bus1=node_439169768.1.2.3 Bus2=node_439021309.1.2.3 LineCode=CND_11_3F Length=35.24 Units=m
New Line.247853022 Bus1=node_445271456.1.2.3 Bus2=node_445271462.1.2.3 LineCode=CND_50_3F Length=27.76 Units=m
New Line.246708133 Bus1=node_439364903.2 Bus2=node_439364173.2 LineCode=CND_907_1F Length=139.38 Units=m
New Line.244633163 Bus1=node_429673014.1 Bus2=node_429672863.1 LineCode=CND_907_1F Length=258.43 Units=m
New Line.246894126 Bus1=node_440448150.1 Bus2=node_440618255.1 LineCode=CND_907_1F Length=91.90 Units=m
New Line.246708057 Bus1=node_439365058.1.2.3 Bus2=node_439020314.1.2.3 LineCode=CND_11_3F Length=136.25 Units=m
New Line.245160476 Bus1=node_432258703.1.2.3 Bus2=node_432258704.1.2.3 LineCode=CND_51_3F Length=163.87 Units=m
New Line.246711267 Bus1=node_440099016.1 Bus2=node_440099017.1 LineCode=CND_907_1F Length=33.21 Units=m
New Line.246708523 Bus1=node_439552808.1 Bus2=node_439552809.1 LineCode=CND_907_1F Length=127.98 Units=m
New Line.246707664 Bus1=node_439363863.3 Bus2=node_439363864.3 LineCode=CND_907_1F Length=257.81 Units=m
New Line.246895593 Bus1=node_440804515.1 Bus2=node_440969131.1 LineCode=CND_907_1F Length=51.63 Units=m
New Line.1199464584 Bus1=node_1498790974.3 Bus2=node_1498791023.3 LineCode=CND_902_1F Length=2.59 Units=m
New Line.246529354 Bus1=node_438841577.1 Bus2=node_438841578.1 LineCode=CND_907_1F Length=54.80 Units=m
New Line.246530977 Bus1=node_439171624.1 Bus2=node_439171759.1 LineCode=CND_907_1F Length=45.32 Units=m
New Line.244630521 Bus1=node_429145090.1 Bus2=node_429145070.1 LineCode=CND_907_1F Length=338.58 Units=m
New Line.246711405 Bus1=node_429841543.2 Bus2=node_440099707.2 LineCode=CND_907_1F Length=62.84 Units=m
New Line.247853097 Bus1=node_445271182.1.2.3 Bus2=node_445271581.1.2.3 LineCode=CND_30_3F Length=101.36 Units=m
New Line.246895699 Bus1=node_440969700.2 Bus2=node_440620065.2 LineCode=CND_907_1F Length=52.37 Units=m
New Line.246530385 Bus1=node_439021750.3 Bus2=node_439022803.3 LineCode=CND_907_1F Length=457.00 Units=m
New Line.626915457 Bus1=node_894813949.2 Bus2=node_894813965.2 LineCode=CND_907_1F Length=39.76 Units=m
New Line.247853535 Bus1=node_445274042.3 Bus2=node_439169813.3 LineCode=CND_909_1F Length=35.04 Units=m
New Line.247064689 Bus1=node_441333734.3 Bus2=node_440618775.3 LineCode=CND_907_1F Length=218.27 Units=m
New Line.2547871648 Bus1=node_2646729051.1.2.3 Bus2=node_2646729266.1.2.3 LineCode=CND_13_3F Length=146.27 Units=m
New Line.246528395 Bus1=node_438677898.3 Bus2=node_438677863.3 LineCode=CND_907_1F Length=115.84 Units=m
New Line.246530676 Bus1=node_438842107.1 Bus2=node_439170073.1 LineCode=CND_907_1F Length=163.38 Units=m
New Line.246708174 Bus1=node_439551059.3 Bus2=node_439551060.3 LineCode=CND_907_1F Length=115.04 Units=m
New Line.246529760 Bus1=node_438841757.1 Bus2=node_439018694.1 LineCode=CND_907_1F Length=288.59 Units=m
New Line.245160020 Bus1=node_428946407.1.2.3 Bus2=node_432256396.1.2.3 LineCode=CND_51_3F Length=127.38 Units=m
New Line.246530914 Bus1=node_428587740.1 Bus2=node_439020104.1 LineCode=CND_907_1F Length=156.87 Units=m
New Line.244630819 Bus1=node_429146580.3 Bus2=node_429146581.3 LineCode=CND_907_1F Length=143.51 Units=m
New Line.246709511 Bus1=node_439750509.1 Bus2=node_439750603.1 LineCode=CND_907_1F Length=135.43 Units=m
New Line.246530562 Bus1=node_439169494.1 Bus2=node_438676373.1 LineCode=CND_907_1F Length=146.33 Units=m
New Line.246528713 Bus1=node_438838366.1.2.3 Bus2=node_438838285.1.2.3 LineCode=CND_11_3F Length=57.70 Units=m
New Line.245161098 Bus1=node_432450761.1.2.3 Bus2=node_1453904027.1.2.3 LineCode=CND_51_3F Length=614.40 Units=m
New Line.246529758 Bus1=node_438841807.1 Bus2=node_438841796.1 LineCode=CND_907_1F Length=75.84 Units=m
New Line.247065878 Bus1=node_441337042.1 Bus2=node_441494284.1 LineCode=CND_907_1F Length=258.84 Units=m
New Line.246707501 Bus1=node_439363048.1 Bus2=node_439172888.1 LineCode=CND_907_1F Length=86.56 Units=m
New Line.246709097 Bus1=node_439748688.3 Bus2=node_439748913.3 LineCode=CND_907_1F Length=328.72 Units=m
New Line.1801269289 Bus1=node_2125055490.3 Bus2=node_2125055309.3 LineCode=CND_907_1F Length=5.07 Units=m
New Line.246710662 Bus1=node_439924164.1 Bus2=node_439748817.1 LineCode=CND_907_1F Length=26.64 Units=m
New Line.247901237 Bus1=node_445297584.1.2.3 Bus2=node_445297828.1.2.3 LineCode=CND_50_3F Length=33.76 Units=m
New Line.244447168 Bus1=node_428584206.1 Bus2=node_428584716.1 LineCode=CND_907_1F Length=94.37 Units=m
New Line.971259872 Bus1=node_440802870.1 Bus2=node_1233391447.1 LineCode=CND_902_1F Length=44.87 Units=m
New Line.245160008 Bus1=node_1431749344.1.2.3 Bus2=node_1071005521.1.2.3 LineCode=CND_51_3F Length=44.62 Units=m
New Line.244448682 Bus1=node_428772637.1 Bus2=node_428772638.1 LineCode=CND_907_1F Length=20.53 Units=m
New Line.247902193 Bus1=node_440444771.1 Bus2=node_445319861.1 LineCode=CND_909_1F Length=26.18 Units=m
New Line.246133703 Bus1=node_436673301.1 Bus2=node_436880172.1 LineCode=CND_907_1F Length=534.10 Units=m
New Line.246710200 Bus1=node_439364253.3 Bus2=node_439364062.3 LineCode=CND_907_1F Length=75.74 Units=m
New Line.246530569 Bus1=node_438477021.3 Bus2=node_439169719.3 LineCode=CND_907_1F Length=371.19 Units=m
New Line.246709664 Bus1=node_439748633.3 Bus2=node_439751764.3 LineCode=CND_907_1F Length=56.60 Units=m
New Line.247067718 Bus1=node_441837854.2 Bus2=node_441838424.2 LineCode=CND_907_1F Length=143.23 Units=m
New Line.246531392 Bus1=node_439362773.1 Bus2=node_439362753.1 LineCode=CND_907_1F Length=68.04 Units=m
New Line.246708370 Bus1=node_439552039.2 Bus2=node_439552040.2 LineCode=CND_907_1F Length=87.93 Units=m
New Line.246709504 Bus1=node_439750664.1 Bus2=node_429144045.1 LineCode=CND_907_1F Length=211.52 Units=m
...
